Program Version,EnergyPlus, Version 9.4.0-998c4b761e, YMD=2021.11.12 14:51,
   ************* Beginning Zone Sizing Calculations
   ** Warning ** RunPeriod: object=RUN PERIOD 1, start weekday (SUNDAY) does not match the start year (2020), corrected to WEDNESDAY.
   ** Warning ** ProcessScheduleInput: Schedule:Day:Interval="SCHEDULE DAY 7", Blank Schedule Type Limits Name input -- will not be validated.
   ** Warning ** ProcessScheduleInput: Schedule:Day:Interval="SCHEDULE DAY 8", Blank Schedule Type Limits Name input -- will not be validated.
   ** Warning ** ProcessScheduleInput: Schedule:Day:Interval="SERVICE WATER LOOP TEMP - 140F DEFAULT", Schedule Type Limits Name="TEMPERATURE SCHEDULE TYPE LIMITS" not found -- will not be validated
   ** Warning ** ProcessScheduleInput: Schedule:Day:Interval="WATER HEATER AMBIENT TEMP SCHEDULE - 71.6F DEFAULT", Schedule Type Limits Name="TEMPERATURE SCHEDULE TYPE LIMITS 1" not found -- will not be validated
   ** Warning ** ProcessScheduleInput: Schedule:Year="SERVICE WATER LOOP TEMP - 140F", Schedule Type Limits Name="TEMPERATURE SCHEDULE TYPE LIMITS" not found -- will not be validated
   ** Warning ** ProcessScheduleInput: Schedule:Year="WATER HEATER AMBIENT TEMP SCHEDULE - 71.6F", Schedule Type Limits Name="TEMPERATURE SCHEDULE TYPE LIMITS 1" not found -- will not be validated
   ** Warning ** ProcessScheduleInput: Schedule:Constant="ALWAYS OFF DISCRETE", Blank Schedule Type Limits Name input -- will not be validated.
   ** Warning ** ProcessScheduleInput: Schedule:Constant="ALWAYS ON CONTINUOUS", Blank Schedule Type Limits Name input -- will not be validated.
   ** Warning ** GetHTSurfaceData: Surfaces with interface to Ground found but no "Ground Temperatures" were input.
   **   ~~~   ** Found first in surface=SURFACE 1
   **   ~~~   ** Defaults, constant throughout the year of (18.0) will be used.
   ** Warning ** BuildingSurface:Detailed="SURFACE 28", Sun Exposure="SUNEXPOSED".
   **   ~~~   ** ..This surface is not exposed to External Environment.  Sun exposure has no effect.
   ** Warning ** GetSurfaceData: InterZone Surface Areas do not match as expected and might not satisfy conservation of energy:
   **   ~~~   ** ...use Output:Diagnostics,DisplayExtraWarnings; to show more details on individual mismatches.
   ** Warning ** CalculateZoneVolume: 3 zones are not fully enclosed. For more details use:  Output:Diagnostics,DisplayExtrawarnings; 
   ** Warning ** CheckUsedConstructions: There are 36 nominally unused constructions in input.
   **   ~~~   ** For explicit details on each unused construction, use Output:Diagnostics,DisplayExtraWarnings;
   ** Warning ** DetermineShadowingCombinations: There are 2 surfaces which are receiving surfaces and are non-convex.
   **   ~~~   ** ...Shadowing values may be inaccurate. Check .shd report file for more surface shading details
   **   ~~~   ** ...Add Output:Diagnostics,DisplayExtraWarnings; to see individual warnings for each surface.
   ** Warning ** GeneratorController constructor ElectricLoadCenter:Generators, Availability Schedule for Generator:PVWatts 'CANOPY' will be be ignored (runs all the time).
   ************* Beginning System Sizing Calculations
   ** Warning ** Node used as an inlet more than once: COIL 7 OUTLET NODE
   **   ~~~   **   Used by     : AIRLOOPHVAC:UNITARYSYSTEM, name=UNITARY - SINGLE SPEED DX COOLING - CYCLING - ELEC REHEAT
   **   ~~~   **   as inlet for: COIL:HEATING:ELECTRIC, name=ELEC HTG COIL 15 CU-1
   **   ~~~   **   and  by     : AIRLOOPHVAC:UNITARYSYSTEM, name=UNITARY - SINGLE SPEED DX COOLING - CYCLING - ELEC REHEAT
   **   ~~~   **   as inlet for: COIL:HEATING:ELECTRIC, name=ELEC HTG COIL 15 CU-1
   ** Warning ** Node used as an outlet more than once: NODE 5
   **   ~~~   **   Used by     : AIRLOOPHVAC:UNITARYSYSTEM, name=UNITARY - SINGLE SPEED DX COOLING - CYCLING - ELEC REHEAT
   **   ~~~   **   as outlet for: COIL:HEATING:ELECTRIC, name=ELEC HTG COIL 15 CU-1
   **   ~~~   **   and  by     : AIRLOOPHVAC:UNITARYSYSTEM, name=UNITARY - SINGLE SPEED DX COOLING - CYCLING - ELEC REHEAT
   **   ~~~   **   as outlet for: COIL:HEATING:ELECTRIC, name=ELEC HTG COIL 15 CU-1
   ** Warning ** Node used as an inlet more than once: COIL 8 OUTLET NODE
   **   ~~~   **   Used by     : AIRLOOPHVAC:UNITARYSYSTEM, name=UNITARY - SINGLE SPEED DX COOLING - CYCLING - ELEC REHEAT CU-2
   **   ~~~   **   as inlet for: COIL:HEATING:ELECTRIC, name=ELEC HTG COIL 15
   **   ~~~   **   and  by     : AIRLOOPHVAC:UNITARYSYSTEM, name=UNITARY - SINGLE SPEED DX COOLING - CYCLING - ELEC REHEAT CU-2
   **   ~~~   **   as inlet for: COIL:HEATING:ELECTRIC, name=ELEC HTG COIL 15
   ** Warning ** Node used as an outlet more than once: NODE 15
   **   ~~~   **   Used by     : AIRLOOPHVAC:UNITARYSYSTEM, name=UNITARY - SINGLE SPEED DX COOLING - CYCLING - ELEC REHEAT CU-2
   **   ~~~   **   as outlet for: COIL:HEATING:ELECTRIC, name=ELEC HTG COIL 15
   **   ~~~   **   and  by     : AIRLOOPHVAC:UNITARYSYSTEM, name=UNITARY - SINGLE SPEED DX COOLING - CYCLING - ELEC REHEAT CU-2
   **   ~~~   **   as outlet for: COIL:HEATING:ELECTRIC, name=ELEC HTG COIL 15
   ** Warning ** Node used as an inlet more than once: COIL 9 OUTLET NODE
   **   ~~~   **   Used by     : AIRLOOPHVAC:UNITARYSYSTEM, name=UNITARY - SINGLE SPEED DX COOLING - CYCLING - ELEC REHEAT CU-3
   **   ~~~   **   as inlet for: COIL:HEATING:ELECTRIC, name=ELEC HTG COIL 16
   **   ~~~   **   and  by     : AIRLOOPHVAC:UNITARYSYSTEM, name=UNITARY - SINGLE SPEED DX COOLING - CYCLING - ELEC REHEAT CU-3
   **   ~~~   **   as inlet for: COIL:HEATING:ELECTRIC, name=ELEC HTG COIL 16
   ** Warning ** Node used as an outlet more than once: NODE 25
   **   ~~~   **   Used by     : AIRLOOPHVAC:UNITARYSYSTEM, name=UNITARY - SINGLE SPEED DX COOLING - CYCLING - ELEC REHEAT CU-3
   **   ~~~   **   as outlet for: COIL:HEATING:ELECTRIC, name=ELEC HTG COIL 16
   **   ~~~   **   and  by     : AIRLOOPHVAC:UNITARYSYSTEM, name=UNITARY - SINGLE SPEED DX COOLING - CYCLING - ELEC REHEAT CU-3
   **   ~~~   **   as outlet for: COIL:HEATING:ELECTRIC, name=ELEC HTG COIL 16
   ** Warning ** GetOAControllerInputs: Controller:MechanicalVentilation="CONTROLLER MECHANICAL VENTILATION 3
   **   ~~~   ** Cannot locate a matching DesignSpecification:ZoneAirDistribution object for Zone="THERMAL ZONE 1".
   **   ~~~   ** Using default zone air distribution effectiveness of 1.0 for heating and cooling.
   ** Warning ** GetOAControllerInputs: Controller:MechanicalVentilation="CONTROLLER MECHANICAL VENTILATION 1
   **   ~~~   ** Cannot locate a matching DesignSpecification:ZoneAirDistribution object for Zone="THERMAL ZONE 2".
   **   ~~~   ** Using default zone air distribution effectiveness of 1.0 for heating and cooling.
   ** Warning ** GetOAControllerInputs: Controller:MechanicalVentilation="CONTROLLER MECHANICAL VENTILATION 2
   **   ~~~   ** Cannot locate a matching DesignSpecification:ZoneAirDistribution object for Zone="THERMAL ZONE 3".
   **   ~~~   ** Using default zone air distribution effectiveness of 1.0 for heating and cooling.
   ** Warning ** Sizing: Coil:Cooling:DX:SingleSpeed "1 SPD DX CLG COIL 7": Rated air volume flow rate per watt of rated total cooling capacity is out of range.
   **   ~~~   ** Min Rated Vol Flow Per Watt=[1.677E-005], Rated Vol Flow Per Watt=[5.497E-005], Max Rated Vol Flow Per Watt=[3.355E-005]. See Input Output Reference Manual for valid range.
   ** Warning ** Sizing: Coil:Cooling:DX:SingleSpeed "1 SPD DX CLG COIL 8": Rated air volume flow rate per watt of rated total cooling capacity is out of range.
   **   ~~~   ** Min Rated Vol Flow Per Watt=[1.677E-005], Rated Vol Flow Per Watt=[5.573E-005], Max Rated Vol Flow Per Watt=[3.355E-005]. See Input Output Reference Manual for valid range.
   ** Warning ** Sizing: Coil:Cooling:DX:SingleSpeed "1 SPD DX CLG COIL 9": Rated air volume flow rate per watt of rated total cooling capacity is out of range.
   **   ~~~   ** Min Rated Vol Flow Per Watt=[1.677E-005], Rated Vol Flow Per Watt=[4.691E-005], Max Rated Vol Flow Per Watt=[3.355E-005]. See Input Output Reference Manual for valid range.
   ** Warning ** AirLoopHVAC:UnitarySystem "UNITARY - SINGLE SPEED DX COOLING - CYCLING - ELEC REHEAT"
   **   ~~~   ** ...For fan type and name = Fan:OnOff "FAN ON OFF 8"
   **   ~~~   ** ...Fan power ratio function of speed ratio curve has no impact if fan volumetric flow rate is the same as the unitary system volumetric flow rate.
   **   ~~~   ** ...Fan volumetric flow rate            = 0.30750 m3/s.
   **   ~~~   ** ...Unitary system volumetric flow rate = 0.30750 m3/s.
   ** Warning ** AirLoopHVAC:UnitarySystem "UNITARY - SINGLE SPEED DX COOLING - CYCLING - ELEC REHEAT CU-2"
   **   ~~~   ** ...For fan type and name = Fan:OnOff "FAN ON OFF 9"
   **   ~~~   ** ...Fan power ratio function of speed ratio curve has no impact if fan volumetric flow rate is the same as the unitary system volumetric flow rate.
   **   ~~~   ** ...Fan volumetric flow rate            = 0.36173 m3/s.
   **   ~~~   ** ...Unitary system volumetric flow rate = 0.36173 m3/s.
   ** Warning ** AirLoopHVAC:UnitarySystem "UNITARY - SINGLE SPEED DX COOLING - CYCLING - ELEC REHEAT CU-3"
   **   ~~~   ** ...For fan type and name = Fan:OnOff "FAN ON OFF 10"
   **   ~~~   ** ...Fan power ratio function of speed ratio curve has no impact if fan volumetric flow rate is the same as the unitary system volumetric flow rate.
   **   ~~~   ** ...Fan volumetric flow rate            = 0.53237 m3/s.
   **   ~~~   ** ...Unitary system volumetric flow rate = 0.53237 m3/s.
   ** Warning ** Output:Meter:MeterFileOnly requested for "Electricity:Facility" (RunPeriod), already on "Output:Meter". Will report to both eplusout.eso and eplusout.mtr
   ** Warning ** Output:Meter:MeterFileOnly requested for "ElectricityNet:Facility" (RunPeriod), already on "Output:Meter". Will report to both eplusout.eso and eplusout.mtr
   ************* Testing Individual Branch Integrity
   ************* All Branches passed integrity testing
   ************* Testing Individual Supply Air Path Integrity
   ************* All Supply Air Paths passed integrity testing
   ************* Testing Individual Return Air Path Integrity
   ************* All Return Air Paths passed integrity testing
   ************* No node connection errors were found.
   ************* Beginning Simulation
   ** Warning ** Processing Monthly Tabular Reports: Variable names not valid for this simulation
   **   ~~~   ** ...use Output:Diagnostics,DisplayExtraWarnings; to show more details on individual variables.
   ** Warning ** UtilityCost: Spaces were removed from the variable="UTILITY COST CHARGE".
   **   ~~~   ** ...Resultant variable="UTILITYCOSTCHARGE".
   ** Warning ** UtilityCost: Invalid season name  in: UTILITY COST CHARGE
   **   ~~~   **   Defaulting to Annual
   ** Warning ** CalcDoe2DXCoil: Coil:Cooling:DX:SingleSpeed="1 SPD DX CLG COIL 8" - Air volume flow rate per watt of rated total cooling capacity is out of range at 4.201E-005 m3/s/W.
   **   ~~~   **  Environment=RUN PERIOD 1, at Simulation time=01/01 09:30 - 09:40
   **   ~~~   ** Expected range for VolumeFlowPerRatedTotalCapacity=[1.342E-005--4.026E-005]
   **   ~~~   ** Possible causes include inconsistent air flow rates in system components,
   **   ~~~   ** or variable air volume [VAV] system using incorrect coil type.
   ** Warning ** CalcDoe2DXCoil: Coil:Cooling:DX:SingleSpeed "1 SPD DX CLG COIL 7" - Full load outlet air dry-bulb temperature < 2C. This indicates the possibility of coil frost/freeze. Outlet temperature = 1.21 C.
   **   ~~~   **  ...Occurrence info = RUN PERIOD 1, 02/04 14:20 - 14:30
   **   ~~~   ** ... Possible reasons for low outlet air dry-bulb temperatures are: This DX coil
   **   ~~~   **    1) may have a low inlet air dry-bulb temperature. Inlet air temperature = 23.462 C.
   **   ~~~   **    2) may have a low air flow rate per watt of cooling capacity. Check inputs.
   **   ~~~   **    3) is used as part of a HX assisted cooling coil which uses a high sensible effectiveness. Check inputs.
   ** Warning ** The resource referenced by LifeCycleCost:UsePriceEscalation= "U.S. AVG  COMMERCIAL-DISTILLATE OIL" has no energy cost. 
   **   ~~~   ** ... It is likely that the wrong resource is used. The resource should match the meter used in Utility:Tariff.
   ** Warning ** The resource referenced by LifeCycleCost:UsePriceEscalation= "U.S. AVG  COMMERCIAL-RESIDUAL OIL" has no energy cost. 
   **   ~~~   ** ... It is likely that the wrong resource is used. The resource should match the meter used in Utility:Tariff.
   ** Warning ** The resource referenced by LifeCycleCost:UsePriceEscalation= "U.S. AVG  COMMERCIAL-NATURAL GAS" has no energy cost. 
   **   ~~~   ** ... It is likely that the wrong resource is used. The resource should match the meter used in Utility:Tariff.
   ** Warning ** The resource referenced by LifeCycleCost:UsePriceEscalation= "U.S. AVG  COMMERCIAL-COAL" has no energy cost. 
   **   ~~~   ** ... It is likely that the wrong resource is used. The resource should match the meter used in Utility:Tariff.
   ************* Simulation Error Summary *************
   ************* There are 38 unused schedules in input.
   ************* There are 38 unused week schedules in input.
   ************* There are 143 unused day schedules in input.
   ************* Use Output:Diagnostics,DisplayUnusedSchedules; to see them.
   *************
   ************* ===== Recurring Error Summary =====
   ************* The following recurring error messages occurred.
   *************
   *************  ** Warning ** CalcDoe2DXCoil: Coil:Cooling:DX:SingleSpeed="1 SPD DX CLG COIL 8" - Air volume flow rate per watt of rated total cooling capacity is out of range error continues...
   *************  **   ~~~   **   This error occurred 265316 total times;
   *************  **   ~~~   **   during Warmup 0 times;
   *************  **   ~~~   **   during Sizing 0 times.
   *************  **   ~~~   **   Max=4.316914E-005  Min=4.159460E-005
   *************
   *************  ** Warning ** CalcDoe2DXCoil: Coil:Cooling:DX:SingleSpeed="1 SPD DX CLG COIL 7" - Full load outlet temperature indicates a possibility of frost/freeze error continues. Outlet air temperature statistics follow:
   *************  **   ~~~   **   This error occurred 82 total times;
   *************  **   ~~~   **   during Warmup 0 times;
   *************  **   ~~~   **   during Sizing 0 times.
   *************  **   ~~~   **   Max=1.97804  Min=0.727575
   *************
   *************
   ************* ===== Final Error Summary =====
   ************* The following error categories occurred.  Consider correcting or noting.
   ************* InterZone Surface Areas -- mismatch
   ************* ..Area mismatch errors happen when the interzone surface in zone A is
   ************* ..not the same size as it's companion in zone B.
   ************* Nominally Unused Constructions
   ************* ..The nominally unused constructions warning is provided to alert you to potential conditions that can cause
   ************* ..extra time during simulation. Each construction is calculated by the algorithm indicated in the HeatBalanceAlgorithm
   ************* ..object. You may remove the constructions indicated (when you use the DisplayExtraWarnings option).
   *************
   ************* EnergyPlus Warmup Error Summary. During Warmup: 0 Warning; 0 Severe Errors.
   ************* EnergyPlus Sizing Error Summary. During Sizing: 21 Warning; 0 Severe Errors.
   ************* EnergyPlus Completed Successfully-- 265439 Warning; 0 Severe Errors; Elapsed Time=00hr 00min 15.01sec
